compare_pyomo/pyomo_MPOPF-main/rawData/IEEE_123_other/dss_scripts/BranchData.dss
New Line.line_1_2 phases=3 Bus1=1.1.2.3 Bus2=2.1.2.3 rmatrix=(9.999993599999999e-05 | 0.0 9.999993599999999e-05 | 0.0 0.0 9.999993599999999e-05) xmatrix=(9.999993599999999e-05 | 0.0 9.999993599999999e-05 | 0.0 0.0 9.999993599999999e-05)
New Line.line_2_3 phases=3 Bus1=2.1.2.3 Bus2=3.1.2.3 rmatrix=(0.03470000256 | 0.01179999936 0.03529999872 | 0.01160000064 0.011999998080000001 0.035000000639999994) xmatrix=(0.08169999552 | 0.03799999872 0.07940000448 | 0.02919999744 0.03210000192 0.08069999616)
New Line.line_3_4 phases=1 Bus1=3.2 Bus2=4.2 rmatrix=(0.0441) xmatrix=(0.04470000192)
New Line.line_3_5 phases=1 Bus1=3.3 Bus2=5.3 rmatrix=(0.06290000064) xmatrix=(0.06380000064)
New Line.line_3_9 phases=3 Bus1=3.1.2.3 Bus2=9.1.2.3 rmatrix=(0.02600000064 | 0.00890000064 0.0265000032 | 0.00869999616 0.009 0.02619999936) xmatrix=(0.061299999359999996 | 0.02849999616 0.059600004479999996 | 0.02189999808 0.024099995519999997 0.060500004479999994)
New Line.line_5_6 phases=1 Bus1=5.3 Bus2=6.3 rmatrix=(0.05030000064) xmatrix=(0.051000001919999996)
New Line.line_5_7 phases=1 Bus1=5.3 Bus2=7.3 rmatrix=(0.08180000064) xmatrix=(0.08289999935999999)
New Line.line_7_8 phases=1 Bus1=7.3 Bus2=8.3 rmatrix=(0.06290000064) xmatrix=(0.06380000064)
New Line.line_9_10 phases=3 Bus1=9.1.2.3 Bus2=10.1.2.3 rmatrix=(0.01729999872 | 0.0058999968000000005 0.01770000192 | 0.0058000032 0.00600000192 0.01749999744) xmatrix=(0.04079999808 | 0.01900000512 0.039699999359999995 | 0.01460000448 0.01600000128 0.04030000128)
New Line.line_10_11 phases=1 Bus1=10.1 Bus2=11.1 rmatrix=(0.056600000639999995) xmatrix=(0.057400001279999995)
New Line.line_10_14 phases=1 Bus1=10.2 Bus2=14.2 rmatrix=(0.056600000639999995) xmatrix=(0.057400001279999995)
New Line.line_10_15 phases=3 Bus1=10.1.2.3 Bus2=15.1.2.3 rmatrix=(0.02600000064 | 0.00890000064 0.0265000032 | 0.00869999616 0.009 0.02619999936) xmatrix=(0.061299999359999996 | 0.02849999616 0.059600004479999996 | 0.02189999808 0.024099995519999997 0.060500004479999994)
New Line.line_11_16 phases=1 Bus1=11.1 Bus2=16.1 rmatrix=(9.999993599999999e-05) xmatrix=(9.999993599999999e-05)
New Line.line_15_20 phases=3 Bus1=15.1.2.3 Bus2=20.1.2.3 rmatrix=(0.0729 | 0.02469999744 0.07209999936 | 0.024399999359999997 0.024000001919999996 0.0715000032) xmatrix=(0.1638 | 0.06620000256 0.16640000064 | 0.07839999936 0.060100001279999996 0.16839999936)
New Line.line_15_36 phases=1 Bus1=15.3 Bus2=36.3 rmatrix=(0.0378) xmatrix=(0.0382999968)
New Line.line_15_117 phases=3 Bus1=15.1.2.3 Bus2=117.1.2.3 rmatrix=(9.9999936e-07 | 0.0 9.9999936e-07 | 0.0 0.0 9.9999936e-07) xmatrix=(0.0 | 0.0 0.0 | 0.0 0.0 0.0)
New Line.line_16_12 phases=1 Bus1=16.1 Bus2=12.1 rmatrix=(0.06290000064) xmatrix=(0.06380000064)
New Line.line_16_13 phases=1 Bus1=16.1 Bus2=13.1 rmatrix=(0.06290000064) xmatrix=(0.06380000064)
New Line.line_17_18 phases=1 Bus1=17.3 Bus2=18.3 rmatrix=(0.09440000064) xmatrix=(0.09570000384)
New Line.line_17_19 phases=1 Bus1=17.3 Bus2=19.3 rmatrix=(0.08810000064) xmatrix=(0.08929999872)
New Line.line_20_21 phases=1 Bus1=20.1 Bus2=21.1 rmatrix=(0.06290000064) xmatrix=(0.06380000064)
New Line.line_20_23 phases=3 Bus1=20.1.2.3 Bus2=23.1.2.3 rmatrix=(0.0265000032 | 0.009 0.02619999936 | 0.00890000064 0.00869999616 0.02600000064) xmatrix=(0.059600004479999996 | 0.024099995519999997 0.060500004479999994 | 0.02849999616 0.02189999808 0.061299999359999996)
New Line.line_20_118 phases=3 Bus1=20.1.2.3 Bus2=118.1.2.3 rmatrix=(9.9999936e-07 | 0.0 9.9999936e-07 | 0.0 0.0 9.9999936e-07) xmatrix=(0.0 | 0.0 0.0 | 0.0 0.0 0.0)
New Line.line_21_22 phases=1 Bus1=21.1 Bus2=22.1 rmatrix=(0.08180000064) xmatrix=(0.08289999935999999)
New Line.line_23_24 phases=1 Bus1=23.2 Bus2=24.2 rmatrix=(0.13220000063999998) xmatrix=(0.13400000064)
New Line.line_23_25 phases=3 Bus1=23.1.2.3 Bus2=25.1.2.3 rmatrix=(0.02210000256 | 0.0074999980800000005 0.02189999808 | 0.00739999872 0.00729999936 0.02169999936) xmatrix=(0.049599999359999994 | 0.02009999808 0.0504 | 0.02379999744 0.01819999872 0.051000001919999996)
New Line.line_25_26 phases=1 Bus1=25.3 Bus2=26.3 rmatrix=(0.13850000063999998) xmatrix=(0.1404)
New Line.line_25_27 phases=3 Bus1=25.1.2.3 Bus2=27.1.2.3 rmatrix=(0.024300000000000002 | 0.00819999936 0.024000001919999996 | 0.0081 0.00800000064 0.02379999744) xmatrix=(0.054599996160000004 | 0.02210000256 0.05550000192 | 0.026099999999999998 0.01999999872 0.05610000384)
New Line.line_27_28 phases=2 Bus1=27.1.3 Bus2=28.1.3 rmatrix=(9.999993599999999e-05 | 0.0 9.999993599999999e-05) xmatrix=(9.999993599999999e-05 | 0.0 9.999993599999999e-05)
New Line.line_27_30 phases=3 Bus1=27.1.2.3 Bus2=30.1.2.3 rmatrix=(0.01770000192 | 0.00600000192 0.01749999744 | 0.0058999968000000005 0.0058000032 0.01729999872) xmatrix=(0.039699999359999995 | 0.01600000128 0.04030000128 | 0.01900000512 0.01460000448 0.04079999808)
New Line.line_28_29 phases=1 Bus1=28.1 Bus2=29.1 rmatrix=(0.02379999744) xmatrix=(0.05610000384)
New Line.line_28_33 phases=1 Bus1=28.3 Bus2=33.3 rmatrix=(0.056600000639999995) xmatrix=(0.057400001279999995)
New Line.line_29_35 phases=1 Bus1=29.1 Bus2=35.1 rmatrix=(0.12590000064) xmatrix=(0.12759999551999998)
New Line.line_30_31 phases=3 Bus1=30.1.2.3 Bus2=31.1.2.3 rmatrix=(0.0265000032 | 0.009 0.02619999936 | 0.00890000064 0.00869999616 0.02600000064) xmatrix=(0.059600004479999996 | 0.024099995519999997 0.060500004479999994 | 0.02849999616 0.02189999808 0.061299999359999996)
New Line.line_31_32 phases=3 Bus1=31.1.2.3 Bus2=32.1.2.3 rmatrix=(0.030900003840000002 | 0.01050000192 0.030600000000000002 | 0.010299997439999998 0.01020000384 0.03030000192) xmatrix=(0.06949999872 | 0.02810000448 0.0706000032 | 0.033299999999999996 0.02549999808 0.0715000032)
New Line.line_32_119 phases=3 Bus1=32.1.2.3 Bus2=119.1.2.3 rmatrix=(0.01770000192 | 0.00600000192 0.01749999744 | 0.0058999968000000005 0.0058000032 0.01729999872) xmatrix=(0.039699999359999995 | 0.01600000128 0.04030000128 | 0.01900000512 0.01460000448 0.04079999808)
New Line.line_33_34 phases=1 Bus1=33.3 Bus2=34.3 rmatrix=(0.07550000064) xmatrix=(0.07660000512)
New Line.line_36_17 phases=1 Bus1=36.3 Bus2=17.3 rmatrix=(0.0252) xmatrix=(0.02549999808)
New Line.line_37_38 phases=2 Bus1=37.1.2 Bus2=38.1.2 rmatrix=(0.05630000256 | 0.0189 0.05679999936) xmatrix=(0.13269999744 | 0.04739999616 0.13109999615999998)
New Line.line_37_42 phases=3 Bus1=37.1.2.3 Bus2=42.1.2.3 rmatrix=(0.02169999936 | 0.00739999872 0.02210000256 | 0.00729999936 0.0074999980800000005 0.02189999808) xmatrix=(0.051000001919999996 | 0.02379999744 0.049599999359999994 | 0.01819999872 0.02009999808 0.0504)
New Line.line_38_39 phases=1 Bus1=38.1 Bus2=39.1 rmatrix=(0.07550000064) xmatrix=(0.07660000512)
New Line.line_38_40 phases=1 Bus1=38.2 Bus2=40.2 rmatrix=(0.06290000064) xmatrix=(0.06380000064)
New Line.line_40_41 phases=1 Bus1=40.2 Bus2=41.2 rmatrix=(0.08180000064) xmatrix=(0.08289999935999999)
New Line.line_42_43 phases=1 Bus1=42.3 Bus2=43.3 rmatrix=(0.08180000064) xmatrix=(0.08289999935999999)
New Line.line_42_44 phases=3 Bus1=42.1.2.3 Bus2=44.1.2.3 rmatrix=(0.02169999936 | 0.00739999872 0.02210000256 | 0.00729999936 0.0074999980800000005 0.02189999808) xmatrix=(0.051000001919999996 | 0.02379999744 0.049599999359999994 | 0.01819999872 0.02009999808 0.0504)
New Line.line_44_45 phases=1 Bus1=44.2 Bus2=45.2 rmatrix=(0.12590000064) xmatrix=(0.12759999551999998)
New Line.line_44_46 phases=3 Bus1=44.1.2.3 Bus2=46.1.2.3 rmatrix=(0.01729999872 | 0.0058999968000000005 0.01770000192 | 0.0058000032 0.00600000192 0.01749999744) xmatrix=(0.04079999808 | 0.01900000512 0.039699999359999995 | 0.01460000448 0.01600000128 0.04030000128)
New Line.line_46_47 phases=1 Bus1=46.1 Bus2=47.1 rmatrix=(0.05030000064) xmatrix=(0.051000001919999996)
New Line.line_46_49 phases=3 Bus1=46.1.2.3 Bus2=49.1.2.3 rmatrix=(0.02169999936 | 0.00739999872 0.02210000256 | 0.00729999936 0.0074999980800000005 0.02189999808) xmatrix=(0.051000001919999996 | 0.02379999744 0.049599999359999994 | 0.01819999872 0.02009999808 0.0504)
New Line.line_47_48 phases=1 Bus1=47.1 Bus2=48.1 rmatrix=(0.07550000064) xmatrix=(0.07660000512)
New Line.line_49_50 phases=3 Bus1=49.1.2.3 Bus2=50.1.2.3 rmatrix=(0.0130999968 | 0.0045 0.01330000128 | 0.00440000064 0.00440000064 0.013000003199999999) xmatrix=(0.03030000192 | 0.011999998080000001 0.02979999936 | 0.010899999359999999 0.01430000064 0.030600000000000002)
New Line.line_49_51 phases=3 Bus1=49.1.2.3 Bus2=51.1.2.3 rmatrix=(0.02189999808 | 0.0074999980800000005 0.02210000256 | 0.00729999936 0.00739999872 0.02169999936) xmatrix=(0.0504 | 0.02009999808 0.049599999359999994 | 0.01819999872 0.02379999744 0.051000001919999996)
New Line.line_51_52 phases=3 Bus1=51.1.2.3 Bus2=52.1.2.3 rmatrix=(0.02189999808 | 0.0074999980800000005 0.02210000256 | 0.00729999936 0.00739999872 0.02169999936) xmatrix=(0.0504 | 0.02009999808 0.049599999359999994 | 0.01819999872 0.02379999744 0.051000001919999996)
New Line.line_52_53 phases=3 Bus1=52.1.2.3 Bus2=53.1.2.3 rmatrix=(0.02189999808 | 0.0074999980800000005 0.02210000256 | 0.00729999936 0.00739999872 0.02169999936) xmatrix=(0.0504 | 0.02009999808 0.049599999359999994 | 0.01819999872 0.02379999744 0.051000001919999996)
New Line.line_53_120 phases=3 Bus1=53.1.2.3 Bus2=120.1.2.3 rmatrix=(0.0436999968 | 0.014999996160000001 0.04419999936 | 0.01449999936 0.01479999744 0.04329999936) xmatrix=(0.10089999935999999 | 0.04010000256 0.09929999808 | 0.03639999744 0.047500001279999995 0.10209999743999999)
New Line.line_54_55 phases=3 Bus1=54.1.2.3 Bus2=55.1.2.3 rmatrix=(0.01729999872 | 0.0058999968000000005 0.01770000192 | 0.0058000032 0.00600000192 0.01749999744) xmatrix=(0.04079999808 | 0.01900000512 0.039699999359999995 | 0.01460000448 0.01600000128 0.04030000128)
New Line.line_55_56 phases=3 Bus1=55.1.2.3 Bus2=56.1.2.3 rmatrix=(0.010799999999999999 | 0.00369999936 0.01099999872 | 0.0036 0.00369999936 0.010899999359999999) xmatrix=(0.02549999808 | 0.01189999872 0.024799996799999998 | 0.00909999936 0.00999999936 0.0252)
New Line.line_56_57 phases=3 Bus1=56.1.2.3 Bus2=57.1.2.3 rmatrix=(0.02379999744 | 0.0081 0.024300000000000002 | 0.00800000064 0.00819999936 0.024000001919999996) xmatrix=(0.05610000384 | 0.026099999999999998 0.054599996160000004 | 0.01999999872 0.02210000256 0.05550000192)
New Line.line_56_59 phases=3 Bus1=56.1.2.3 Bus2=59.1.2.3 rmatrix=(0.030600000000000002 | 0.01020000384 0.03030000192 | 0.01050000192 0.010299997439999998 0.030900003840000002) xmatrix=(0.0706000032 | 0.02549999808 0.0715000032 | 0.02810000448 0.033299999999999996 0.06949999872)
New Line.line_57_58 phases=3 Bus1=57.1.2.3 Bus2=58.1.2.3 rmatrix=(0.02379999744 | 0.0081 0.024300000000000002 | 0.00800000064 0.00819999936 0.024000001919999996) xmatrix=(0.05610000384 | 0.026099999999999998 0.054599996160000004 | 0.01999999872 0.02210000256 0.05550000192)
New Line.line_59_60 phases=1 Bus1=59.2 Bus2=60.2 rmatrix=(0.06290000064) xmatrix=(0.06380000064)
New Line.line_59_62 phases=3 Bus1=59.1.2.3 Bus2=62.1.2.3 rmatrix=(0.06559999488 | 0.02180000448 0.06499999872000001 | 0.02240000064 0.02219999616 0.06629999616) xmatrix=(0.15129999936 | 0.05470000128 0.15309999936 | 0.06020000064 0.07129999872 0.1489000032)
New Line.line_60_61 phases=1 Bus1=60.2 Bus2=61.2 rmatrix=(0.06290000064) xmatrix=(0.06380000064)
New Line.line_62_63 phases=3 Bus1=62.1.2.3 Bus2=63.1.2.3 rmatrix=(0.048600000000000004 | 0.016299999359999998 0.0477 | 0.01650000384 0.01600000128 0.04809999744) xmatrix=(0.10919999808 | 0.052299999359999995 0.11230000127999999 | 0.0441 0.04010000256 0.11089999872)
New Line.line_62_64 phases=3 Bus1=62.1.2.3 Bus2=64.1.2.3 rmatrix=(0.072 | 0.02460000384 0.07259999616 | 0.02330000064 0.02460000384 0.072) xmatrix=(0.03560000256 | 0.0130999968 0.03389999616 | 0.01020000384 0.0130999968 0.03560000256)
New Line.line_62_125 phases=3 Bus1=62.1.2.3 Bus2=125.1.2.3 rmatrix=(9.9999936e-07 | 0.0 9.9999936e-07 | 0.0 0.0 9.9999936e-07) xmatrix=(0.0 | 0.0 0.0 | 0.0 0.0 0.0)
New Line.line_63_122 phases=3 Bus1=63.1.2.3 Bus2=122.1.2.3 rmatrix=(0.012699999359999999 | 0.0 0.012699999359999999 | 0.0 0.0 0.012699999359999999) xmatrix=(0.02720000448 | 0.0 0.02720000448 | 0.0 0.0 0.02720000448)
New Line.line_64_65 phases=3 Bus1=64.1.2.3 Bus2=65.1.2.3 rmatrix=(0.0504 | 0.01719999936 0.0508000032 | 0.016299999359999998 0.01719999936 0.0504) xmatrix=(0.024900001919999998 | 0.00919999872 0.02370000384 | 0.00709999488 0.00919999872 0.024900001919999998)
New Line.line_65_66 phases=3 Bus1=65.1.2.3 Bus2=66.1.2.3 rmatrix=(0.1008 | 0.03449999808 0.10160000064000001 | 0.032599998719999995 0.03449999808 0.1008) xmatrix=(0.04989999744 | 0.0184000032 0.047500001279999995 | 0.01430000064 0.0184000032 0.04989999744)
New Line.line_66_67 phases=3 Bus1=66.1.2.3 Bus2=67.1.2.3 rmatrix=(0.12240000000000001 | 0.04179999744 0.12339999935999998 | 0.039599999999999996 0.04179999744 0.12240000000000001) xmatrix=(0.060500004479999994 | 0.02230000128 0.0576 | 0.01740000384 0.02230000128 0.060500004479999994)
New Line.line_67_68 phases=3 Bus1=67.1.2.3 Bus2=68.1.2.3 rmatrix=(0.0936 | 0.0319999968 0.09440000064 | 0.03030000192 0.0319999968 0.0936) xmatrix=(0.046300003199999995 | 0.0171 0.0441 | 0.01330000128 0.0171 0.046300003199999995)
New Line.line_69_70 phases=1 Bus1=69.1 Bus2=70.1 rmatrix=(0.05030000064) xmatrix=(0.051000001919999996)
New Line.line_69_74 phases=3 Bus1=69.1.2.3 Bus2=74.1.2.3 rmatrix=(0.024000001919999996 | 0.00800000064 0.02379999744 | 0.00819999936 0.0081 0.024300000000000002) xmatrix=(0.05550000192 | 0.01999999872 0.05610000384 | 0.02210000256 0.026099999999999998 0.054599996160000004)
New Line.line_69_99 phases=3 Bus1=69.1.2.3 Bus2=99.1.2.3 rmatrix=(0.02189999808 | 0.00729999936 0.02169999936 | 0.0074999980800000005 0.00739999872 0.02210000256) xmatrix=(0.0504 | 0.01819999872 0.051000001919999996 | 0.02009999808 0.02379999744 0.049599999359999994)
New Line.line_70_71 phases=1 Bus1=70.1 Bus2=71.1 rmatrix=(0.06920000064) xmatrix=(0.0702)
New Line.line_71_72 phases=1 Bus1=71.1 Bus2=72.1 rmatrix=(0.08180000064) xmatrix=(0.08289999935999999)
New Line.line_72_73 phases=1 Bus1=72.1 Bus2=73.1 rmatrix=(0.06920000064) xmatrix=(0.0702)
New Line.line_74_75 phases=1 Bus1=74.3 Bus2=75.3 rmatrix=(0.06920000064) xmatrix=(0.0702)
New Line.line_74_78 phases=3 Bus1=74.1.2.3 Bus2=78.1.2.3 rmatrix=(0.01749999744 | 0.0058000032 0.01729999872 | 0.00600000192 0.0058999968000000005 0.01770000192) xmatrix=(0.04030000128 | 0.01460000448 0.04079999808 | 0.01600000128 0.01900000512 0.039699999359999995)
New Line.line_75_76 phases=1 Bus1=75.3 Bus2=76.3 rmatrix=(0.08810000064) xmatrix=(0.08929999872)
New Line.line_76_77 phases=1 Bus1=76.3 Bus2=77.3 rmatrix=(0.10070000064000001) xmatrix=(0.10209999743999999)
New Line.line_78_79 phases=3 Bus1=78.1.2.3 Bus2=79.1.2.3 rmatrix=(0.03470000256 | 0.01160000064 0.035000000639999994 | 0.01179999936 0.011999998080000001 0.03529999872) xmatrix=(0.08169999552 | 0.02919999744 0.08069999616 | 0.03799999872 0.03210000192 0.07940000448)
New Line.line_78_88 phases=3 Bus1=78.1.2.3 Bus2=88.1.2.3 rmatrix=(0.061200000000000004 | 0.02040000192 0.06069999744 | 0.02090000448 0.0207 0.06190000128) xmatrix=(0.14120000064 | 0.051000001919999996 0.14290000128 | 0.056199997439999996 0.06650000064 0.13899999744)
New Line.line_79_80 phases=3 Bus1=79.1.2.3 Bus2=80.1.2.3 rmatrix=(0.00869999616 | 0.00289999872 0.00869999616 | 0.0029999980799999995 0.0029999980799999995 0.00880000128) xmatrix=(0.02040000192 | 0.00729999936 0.0202000032 | 0.00950000256 0.00800000064 0.01989999936)
New Line.line_80_81 phases=3 Bus1=80.1.2.3 Bus2=81.1.2.3 rmatrix=(0.01950000192 | 0.00649999872 0.01970000064 | 0.00659999808 0.0067000032 0.01989999936) xmatrix=(0.045899999999999996 | 0.01639999872 0.0454000032 | 0.021400001279999997 0.01809999936 0.04470000192)
New Line.line_80_82 phases=3 Bus1=80.1.2.3 Bus2=82.1.2.3 rmatrix=(0.04120000128 | 0.013799998079999999 0.04149999936 | 0.0139999968 0.01420000128 0.04199999616) xmatrix=(0.09700000128 | 0.03459999744 0.09579999743999999 | 0.045099999360000004 0.03809999808 0.09430000127999999)
New Line.line_82_83 phases=3 Bus1=82.1.2.3 Bus2=83.1.2.3 rmatrix=(0.04120000128 | 0.013799998079999999 0.04149999936 | 0.0139999968 0.01420000128 0.04199999616) xmatrix=(0.09700000128 | 0.03459999744 0.09579999743999999 | 0.045099999360000004 0.03809999808 0.09430000127999999)
New Line.line_83_84 phases=3 Bus1=83.1.2.3 Bus2=84.1.2.3 rmatrix=(0.02169999936 | 0.00729999936 0.02189999808 | 0.00739999872 0.0074999980800000005 0.02210000256) xmatrix=(0.051000001919999996 | 0.01819999872 0.0504 | 0.02379999744 0.02009999808 0.049599999359999994)
New Line.line_83_86 phases=1 Bus1=83.3 Bus2=86.3 rmatrix=(0.16990000128) xmatrix=(0.17229999744)
New Line.line_84_85 phases=3 Bus1=84.1.2.3 Bus2=85.1.2.3 rmatrix=(0.02169999936 | 0.00729999936 0.02189999808 | 0.00739999872 0.0074999980800000005 0.02210000256) xmatrix=(0.051000001919999996 | 0.01819999872 0.0504 | 0.02379999744 0.02009999808 0.049599999359999994)
New Line.line_86_87 phases=1 Bus1=86.3 Bus2=87.3 rmatrix=(0.11960000064) xmatrix=(0.12120000192)
New Line.line_88_89 phases=3 Bus1=88.1.2.3 Bus2=89.1.2.3 rmatrix=(0.03899999808 | 0.0130999968 0.03930000192 | 0.01330000128 0.0135 0.03979999872) xmatrix=(0.09189999936 | 0.0328000032 0.09080000063999999 | 0.042800002559999994 0.036099999359999996 0.08929999872)
New Line.line_89_90 phases=1 Bus1=89.1 Bus2=90.1 rmatrix=(0.0441) xmatrix=(0.04470000192)
New Line.line_89_91 phases=3 Bus1=89.1.2.3 Bus2=91.1.2.3 rmatrix=(0.02379999744 | 0.00800000064 0.024000001919999996 | 0.0081 0.00819999936 0.024300000000000002) xmatrix=(0.05610000384 | 0.01999999872 0.05550000192 | 0.026099999999999998 0.02210000256 0.054599996160000004)
New Line.line_91_92 phases=1 Bus1=91.2 Bus2=92.2 rmatrix=(0.056600000639999995) xmatrix=(0.057400001279999995)
New Line.line_91_93 phases=3 Bus1=91.1.2.3 Bus2=93.1.2.3 rmatrix=(0.01950000192 | 0.00649999872 0.01970000064 | 0.00659999808 0.0067000032 0.01989999936) xmatrix=(0.045899999999999996 | 0.01639999872 0.0454000032 | 0.021400001279999997 0.01809999936 0.04470000192)
New Line.line_93_94 phases=1 Bus1=93.3 Bus2=94.3 rmatrix=(0.07550000064) xmatrix=(0.07660000512)
New Line.line_93_95 phases=3 Bus1=93.1.2.3 Bus2=95.1.2.3 rmatrix=(0.01950000192 | 0.00649999872 0.01970000064 | 0.00659999808 0.0067000032 0.01989999936) xmatrix=(0.045899999999999996 | 0.01639999872 0.0454000032 | 0.021400001279999997 0.01809999936 0.04470000192)
New Line.line_95_96 phases=1 Bus1=95.1 Bus2=96.1 rmatrix=(0.06920000064) xmatrix=(0.0702)
New Line.line_95_97 phases=3 Bus1=95.1.2.3 Bus2=97.1.2.3 rmatrix=(0.02600000064 | 0.00869999616 0.02619999936 | 0.00890000064 0.009 0.0265000032) xmatrix=(0.061299999359999996 | 0.02189999808 0.060500004479999994 | 0.02849999616 0.024099995519999997 0.059600004479999996)
New Line.line_97_98 phases=1 Bus1=97.2 Bus2=98.2 rmatrix=(0.05030000064) xmatrix=(0.051000001919999996)
New Line.line_99_100 phases=3 Bus1=99.1.2.3 Bus2=100.1.2.3 rmatrix=(0.024000001919999996 | 0.00800000064 0.02379999744 | 0.00819999936 0.0081 0.024300000000000002) xmatrix=(0.05550000192 | 0.01999999872 0.05610000384 | 0.02210000256 0.026099999999999998 0.054599996160000004)
New Line.line_99_124 phases=3 Bus1=99.1.2.3 Bus2=124.1.2.3 rmatrix=(9.9999936e-07 | 0.0 9.9999936e-07 | 0.0 0.0 9.9999936e-07) xmatrix=(0.0 | 0.0 0.0 | 0.0 0.0 0.0)
New Line.line_100_101 phases=3 Bus1=100.1.2.3 Bus2=101.1.2.3 rmatrix=(0.04809999744 | 0.01600000128 0.0477 | 0.01650000384 0.016299999359999998 0.048600000000000004) xmatrix=(0.11089999872 | 0.04010000256 0.11230000127999999 | 0.0441 0.052299999359999995 0.10919999808)
New Line.line_101_102 phases=3 Bus1=101.1.2.3 Bus2=102.1.2.3 rmatrix=(0.02619999936 | 0.00869999616 0.02600000064 | 0.009 0.00890000064 0.0265000032) xmatrix=(0.060500004479999994 | 0.02189999808 0.061299999359999996 | 0.024099995519999997 0.02849999616 0.059600004479999996)
New Line.line_102_123 phases=3 Bus1=102.1.2.3 Bus2=123.1.2.3 rmatrix=(0.06990000192 | 0.02330000064 0.0693 | 0.02390000256 0.02359999872 0.0706999968) xmatrix=(0.16139999808 | 0.05830000127999999 0.1633000032 | 0.06419999808 0.07599999744 0.15879999743999998)
New Line.line_103_104 phases=1 Bus1=103.3 Bus2=104.3 rmatrix=(0.056600000639999995) xmatrix=(0.057400001279999995)
New Line.line_103_107 phases=3 Bus1=103.1.2.3 Bus2=107.1.2.3 rmatrix=(0.024000001919999996 | 0.00800000064 0.02379999744 | 0.00819999936 0.0081 0.024300000000000002) xmatrix=(0.05550000192 | 0.01999999872 0.05610000384 | 0.02210000256 0.026099999999999998 0.054599996160000004)
New Line.line_104_105 phases=1 Bus1=104.3 Bus2=105.3 rmatrix=(0.08180000064) xmatrix=(0.08289999935999999)
New Line.line_105_106 phases=1 Bus1=105.3 Bus2=106.3 rmatrix=(0.17620000128) xmatrix=(0.17859999744)
New Line.line_107_108 phases=1 Bus1=107.2 Bus2=108.2 rmatrix=(0.056600000639999995) xmatrix=(0.057400001279999995)
New Line.line_107_110 phases=3 Bus1=107.1.2.3 Bus2=110.1.2.3 rmatrix=(0.02840000256 | 0.00939999744 0.028199998079999997 | 0.009700001279999999 0.00959999616 0.028700000639999997) xmatrix=(0.06559999488 | 0.02370000384 0.06640000128 | 0.026099999999999998 0.030900003840000002 0.06450000192)
New Line.line_108_109 phases=1 Bus1=108.2 Bus2=109.2 rmatrix=(0.14480000064) xmatrix=(0.1467)
New Line.line_110_111 phases=1 Bus1=110.1 Bus2=111.1 rmatrix=(0.11330000064) xmatrix=(0.11479999679999998)
New Line.line_110_121 phases=3 Bus1=110.1.2.3 Bus2=121.1.2.3 rmatrix=(0.08739999936 | 0.029099998079999998 0.08669999808000001 | 0.02989999872 0.02950000128 0.08839999872) xmatrix=(0.20169999935999997 | 0.0729 0.20420000064 | 0.08019999936 0.09500000255999999 0.19850000255999997)
New Line.line_111_112 phases=1 Bus1=111.1 Bus2=112.1 rmatrix=(0.07550000064) xmatrix=(0.07660000512)
New Line.line_112_113 phases=1 Bus1=112.1 Bus2=113.1 rmatrix=(0.14480000064) xmatrix=(0.1467)
New Line.line_112_114 phases=1 Bus1=112.1 Bus2=114.1 rmatrix=(0.0315) xmatrix=(0.0319000032)
New Line.line_114_115 phases=1 Bus1=114.1 Bus2=115.1 rmatrix=(0.13220000063999998) xmatrix=(0.13400000064)
New Line.line_115_116 phases=1 Bus1=115.1 Bus2=116.1 rmatrix=(0.08180000064) xmatrix=(0.08289999935999999)
New Line.line_117_54 phases=3 Bus1=117.1.2.3 Bus2=54.1.2.3 rmatrix=(0.03470000256 | 0.01179999936 0.03529999872 | 0.01160000064 0.011999998080000001 0.035000000639999994) xmatrix=(0.08169999552 | 0.03799999872 0.07940000448 | 0.02919999744 0.03210000192 0.08069999616)
New Line.line_118_37 phases=3 Bus1=118.1.2.3 Bus2=37.1.2.3 rmatrix=(0.0328000032 | 0.01119999744 0.03310000128 | 0.010899999359999999 0.011100003839999999 0.032499999360000004) xmatrix=(0.0756 | 0.03009999744 0.07439999616 | 0.027299998080000002 0.03560000256 0.07660000512)
New Line.line_124_103 phases=3 Bus1=124.1.2.3 Bus2=103.1.2.3 rmatrix=(0.02189999808 | 0.00729999936 0.02169999936 | 0.0074999980800000005 0.00739999872 0.02210000256) xmatrix=(0.0504 | 0.01819999872 0.051000001919999996 | 0.02009999808 0.02379999744 0.049599999359999994)
New Line.line_125_69 phases=3 Bus1=125.1.2.3 Bus2=69.1.2.3 rmatrix=(9.999993599999999e-05 | 0.0 9.999993599999999e-05 | 0.0 0.0 9.999993599999999e-05) xmatrix=(9.999993599999999e-05 | 0.0 9.999993599999999e-05 | 0.0 0.0 9.999993599999999e-05)
